data/D023303/Lines.dss
New Line.line0 Units=km Length=0.001 bus1=n207170.1.2.3 bus2=n207171.1.2.3 switch=n enabled=y phases=3 Linecode=unknown_linecode_3
New Line.line1 Units=km Length=0.001 bus1=n207171.1.2.3 bus2=n207172.1.2.3 switch=n enabled=y phases=3 Linecode=unknown_linecode_3
New Line.line10 Units=km Length=0.03513 bus1=n207177.1.2.3 bus2=n193101.1.2.3 switch=n enabled=y phases=3 Linecode=7/.080_CU_(7/2.0)_3
New Line.line11 Units=km Length=0.001 bus1=n193101.1.2.3 bus2=n630627.1.2.3 switch=n enabled=y phases=3 Linecode=7/.080_CU_(7/2.0)_3
New Line.line2 Units=km Length=0.0546 bus1=n207172.1.2.3 bus2=n207173.1.2.3 switch=n enabled=y phases=3 Linecode=unknown_linecode_3
New Line.line3 Units=km Length=0.02128 bus1=n207173.1.2.3 bus2=n207174.1.2.3 switch=n enabled=y phases=3 Linecode=25AL_ABC_3
New Line.line4 Units=km Length=0.001 bus1=n207174.1.2.3 bus2=n630625.1.2.3 switch=n enabled=y phases=3 Linecode=25AL_ABC_3
New Line.line5 Units=km Length=0.049490000000000006 bus1=n207173.1.2.3 bus2=n207175.1.2.3 switch=n enabled=y phases=3 Linecode=unknown_linecode_3
New Line.line6 Units=km Length=0.051590000000000004 bus1=n207175.1.2.3 bus2=n207176.1.2.3 switch=n enabled=y phases=3 Linecode=unknown_linecode_3
New Line.line7 Units=km Length=0.001 bus1=n207176.1.2.3 bus2=n207177.1.2.3 switch=n enabled=y phases=3 Linecode=unknown_linecode_3
New Line.line8 Units=km Length=0.06067 bus1=n207177.1.2.3 bus2=n207178.1.2.3 switch=n enabled=y phases=3 Linecode=38_HD_CU_3
New Line.line9 Units=km Length=0.00209 bus1=n207178.1.2.3 bus2=n630626.1.2.3 switch=n enabled=y phases=3 Linecode=38_HD_CU_3
